data_none

_audit_creation_method generated by ABACUS

_cell_length_a 6.7605
_cell_length_b 10.9948
_cell_length_c 12.7396
_cell_angle_alpha 91.0381
_cell_angle_beta 89.5402
_cell_angle_gamma 89.8586

loop_
_symmetry_equiv_pos_as_xyz
'x,y,z'
loop_
_atom_site_label
_atom_site_fract_x
_atom_site_fract_y
_atom_site_fract_z
Mg 0.666027 0.162466 0.175613
Al 0.840173 0.886767 0.617735
Al 0.0784676 0.364295 0.174532
Al 0.921216 0.756058 0.427887
Al 0.741276 0.65731 0.233471
Al 0.322419 0.0227977 0.2612
Al 0.650932 0.230316 0.390886
Al 0.305082 0.664164 0.41063
Al 0.026749 0.372628 0.402031
Al 0.407438 0.500572 0.226551
Al 0.654652 0.895997 0.260047
Al 0.070566 0.485746 0.591158
Al 0.455597 0.552563 0.605666
Al 0.431412 0.275134 0.608869
Al 0.137128 0.800548 0.254009
Al 0.218871 0.146751 0.437839
Al 0.219229 0.911715 0.499862
Al 0.788139 0.144489 0.589629
Al 0.699759 0.552693 0.420176
Al 0.559527 0.00252763 0.460643
Al 0.153874 0.717762 0.615595
Cu 0.374087 0.429075 0.435918
Cu 0.347779 0.280271 0.291014
Cu 0.729942 0.383889 0.546704
Cu 0.0690266 0.573307 0.282855
Cu 0.525043 0.784188 0.534119
Cu 0.969455 0.988099 0.200399
Cu 0.91453 0.00017673 0.410236
Cu 0.80807 0.657278 0.594522
Cu 0.753824 0.399292 0.267064
Cu 0.00301093 0.195159 0.282672
Cu 0.0751616 0.272243 0.579378
